Circuit: * H:\Electronics System Design\DSO\DSO-master\front_end.asc

Direct Newton iteration failed to find .op point.  (Use ".option noopiter" to skip.)
Starting Gmin stepping
Gmin = 10
Gmin = 1.07374
vernier = 0.5
vernier = 0.25
vernier = 0.125
vernier = 0.0625
vernier = 0.03125
Gmin = 1.0412
vernier = 0.015625
vernier = 0.0078125
Gmin = 1.0132
vernier = 0.00390625
vernier = 0.00195313
Gmin = 1.00827
vernier = 0.00260417
vernier = 0.00130208
Gmin = 1.00515
vernier = 0.000651042
vernier = 0.000868055
vernier = 0.000434028
Gmin = 1.00434
vernier = 0.000578703
vernier = 0.000434027
Gmin = 1.00339
Gmin = 0
Gmin stepping failed

Starting source stepping with srcstepmethod=0
Source Step = 3.0303%
Source Step = 17.6136%
Source Step = 19.5076%
Source Step = 21.4015%
Source Step = 23.2955%
Source Step = 25.1894%
Source Step = 27.0833%
vernier = 0.09375
Source Step = 29.9242%
Source Step = 32.7652%
Source Step = 35.6061%
Source Step = 38.447%
Source Step = 41.2879%
vernier = 0.140625
Source Step = 45.4072%
Source Step = 49.6686%
Source Step = 53.9299%
Source Step = 58.1913%
Source Step = 62.4527%
vernier = 0.210938
Source Step = 68.4186%
Source Step = 74.8106%
Source Step = 81.2027%
Source Step = 87.5947%
Source Step = 93.9867%
vernier = 0.316406
Source stepping succeeded in finding the operating point.


Date: Fri Aug 23 17:10:10 2019
Total elapsed time: 0.299 seconds.

tnom = 27
temp = 27
method = trap
totiter = 5763
traniter = 0
tranpoints = 0
accept = 0
rejected = 0
matrix size = 44
fillins = 54
solver = Normal
Matrix Compiler1:     246 opcodes
Matrix Compiler2: off  [0.8]/0.9/1.1

