Circuit: * D:\Users\Bill\Documents\UoM\Year5\Sem2\ESD\Workshops\DSO\front_end.asc

Direct Newton iteration failed to find .op point.  (Use ".option noopiter" to skip.)
Starting Gmin stepping
Gmin = 10
Gmin = 1.07374
vernier = 0.5
vernier = 0.25
vernier = 0.125
vernier = 0.0625
vernier = 0.03125
Gmin = 1.0412
vernier = 0.015625
vernier = 0.0078125
Gmin = 1.0132
vernier = 0.00390625
vernier = 0.00195313
Gmin = 1.00827
vernier = 0.00260417
vernier = 0.00130208
Gmin = 1.00515
vernier = 0.000651042
vernier = 0.000868055
vernier = 0.000434028
Gmin = 1.00434
vernier = 0.000578703
vernier = 0.000434027
Gmin = 1.00339
Gmin = 0
Gmin stepping failed

Starting source stepping with srcstepmethod=0
Source Step = 3.0303%
Source Step = 33.3333%
Source Step = 63.6364%
Source Step = 93.9394%
Source stepping succeeded in finding the operating point.


Date: Sat Aug 24 17:45:50 2019
Total elapsed time: 0.683 seconds.

tnom = 27
temp = 27
method = modified trap
totiter = 10952
traniter = 6107
tranpoints = 2240
accept = 1779
rejected = 461
matrix size = 43
fillins = 55
solver = Normal
Thread vector: 19.1/9.9[5] 7.4/4.0[5] 3.5/2.5[4] 0.5/2.9[1]  2592/500
Matrix Compiler1: 4.41 KB object code size  2.2/1.5/[0.6]
Matrix Compiler2: off  [1.4]/1.8/2.3

